Circuit: * C:\Users\DR YESUFU\Desktop\Yesufu Faith ltspice\3.1Atwo.asc

Direct Newton iteration for .op point succeeded.
Semiconductor Device Operating Points:
                        --- Diodes ---
Name:      d2           d
Model:      d           d
Id:     -9.34e-12    1.87e-03
Vd:     -9.33e+00    6.71e-01
Req:     1.00e+12    1.39e+01
CAP:     0.00e+00    0.00e+00



Date: Fri Oct 18 03:26:05 2019
Total elapsed time: 0.062 seconds.

tnom = 27
temp = 27
method = trap
totiter = 9
traniter = 0
tranpoints = 0
accept = 0
rejected = 0
matrix size = 6
fillins = 0
solver = Normal
Matrix Compiler1: 146 bytes object code size
Matrix Compiler2: 380 bytes object code size
