Circuit: * C:\Users\DR YESUFU\Desktop\Yesufu Faith ltspice\3.6.asc

Direct Newton iteration for .op point succeeded.

Date: Fri Oct 18 03:25:33 2019
Total elapsed time: 0.172 seconds.

tnom = 27
temp = 27
method = modified trap
totiter = 2086
traniter = 2082
tranpoints = 1042
accept = 1042
rejected = 0
matrix size = 10
fillins = 5
solver = Normal
Matrix Compiler1: 858 bytes object code size  0.8/0.5/[0.4]
Matrix Compiler2: 870 bytes object code size  0.3/0.7/[0.3]

