Circuit: * C:\Users\DR YESUFU\Desktop\Yesufu Faith ltspice\3.7A.asc

R1: both pins shorted together -- ignoring.
Fatal Error: No analysis request found.
