Circuit: * C:\Users\DR YESUFU\Desktop\Yesufu Faith ltspice\CENTER tap full wave.asc

.OP point found by inspection.

Date: Mon Aug 02 09:36:53 2021
Total elapsed time: 0.461 seconds.

tnom = 27
temp = 27
method = modified trap
totiter = 3558
traniter = 3558
tranpoints = 1411
accept = 1291
rejected = 120
matrix size = 10
fillins = 8
solver = Normal
Matrix Compiler1: 880 bytes object code size  0.7/0.5/[0.4]
Matrix Compiler2: 890 bytes object code size  0.3/0.6/[0.3]

