Circuit: * C:\Users\DR YESUFU\Desktop\Yesufu Faith ltspice\half wave.asc

.OP point found by inspection.

Date: Mon Aug 02 08:40:08 2021
Total elapsed time: 0.280 seconds.

tnom = 27
temp = 27
method = modified trap
totiter = 2126
traniter = 2126
tranpoints = 1061
accept = 1057
rejected = 4
matrix size = 3
fillins = 0
solver = Normal
Matrix Compiler1:       3 opcodes  0.1/[0.1]/0.1
Matrix Compiler2: 175 bytes object code size  0.1/0.2/[0.1]

