Circuit: * C:\Users\DR YESUFU\Desktop\Yesufu Faith ltspice\opamp.asc

Ignoring empty pin current: Ix(u1:1)
Ignoring empty pin current: Ix(u1:2)
.OP point found by inspection.

Date: Wed Jul 14 22:52:20 2021
Total elapsed time: 1.648 seconds.

tnom = 27
temp = 27
method = trap
totiter = 200
traniter = 0
tranpoints = 0
accept = 0
rejected = 0
matrix size = 4
fillins = 0
solver = Normal
Matrix Compiler1:       6 opcodes  0.2/[0.1]/0.1
Matrix Compiler2: 248 bytes object code size  0.2/0.2/[0.2]

