Circuit: * C:\Users\DR YESUFU\Desktop\Yesufu Faith ltspice\Third partydrafts.asc


Date: Mon Dec 14 11:13:57 2020
Total elapsed time: 0.078 seconds.

tnom = 27
temp = 27
method = trap
totiter = 404
traniter = 0
tranpoints = 0
accept = 0
rejected = 0
matrix size = 3
fillins = 0
solver = Normal
Matrix Compiler1:       5 opcodes  0.2/[0.1]/0.1
Matrix Compiler2: 163 bytes object code size  0.1/0.2/[0.1]

